
Note: No compatibility mode selected!


Circuit: **.subckt tb_fo4 out7 out6 out8 out9 out3 out2 out1


********************************** Cycle 0 **********************************

Reset re-loads circuit **.subckt tb_fo4 out7 out6 out8 out9 out3 out2 out1

Circuit: **.subckt tb_fo4 out7 out6 out8 out9 out3 out2 out1

Reset re-loads circuit **.subckt tb_fo4 out7 out6 out8 out9 out3 out2 out1

Circuit: **.subckt tb_fo4 out7 out6 out8 out9 out3 out2 out1

Doing analysis at TEMP = 27.000000 and TNOM = 27.000000


Initial Transient Solution
--------------------------

Node                                   Voltage
----                                   -------
vss                                          0
vdd                                        1.8
vin                                          0
out1                                 5.317e-07
net1                                       1.8
out2                                 5.317e-07
out3                                 5.317e-07
out                                  5.317e-07
out6                                       1.8
out7                                       1.8
out8                                       1.8
out9                                       1.8
v3#branch                                    0
v2#branch                          -1.1613e-09
v1#branch                          1.16142e-09

 Reference value :  0.00000e+00 Reference value :  2.21945e-09 Reference value :  4.44645e-09
No. of Data Rows : 6041

t_rise              =  9.687088e-11 targ=  2.215997e-09 trig=  2.119126e-09
t_fall              =  1.210828e-10 targ=  3.266096e-09 trig=  3.145013e-09
Wn: 0.41
Wp: 1.85


********************************** Cycle 1 **********************************

Reset re-loads circuit **.subckt tb_fo4 out7 out6 out8 out9 out3 out2 out1

Circuit: **.subckt tb_fo4 out7 out6 out8 out9 out3 out2 out1

Reset re-loads circuit **.subckt tb_fo4 out7 out6 out8 out9 out3 out2 out1

Circuit: **.subckt tb_fo4 out7 out6 out8 out9 out3 out2 out1

Doing analysis at TEMP = 27.000000 and TNOM = 27.000000


Initial Transient Solution
--------------------------

Node                                   Voltage
----                                   -------
vss                                          0
vdd                                        1.8
vin                                          0
out1                               5.35192e-07
net1                                       1.8
out2                               5.35192e-07
out3                               5.35192e-07
out                                5.35192e-07
out6                                       1.8
out7                                       1.8
out8                                       1.8
out9                                       1.8
v3#branch                                    0
v2#branch                          -1.1519e-09
v1#branch                          1.15196e-09

 Reference value :  0.00000e+00 Reference value :  2.12045e-09 Reference value :  4.29345e-09
No. of Data Rows : 6041

t_rise              =  9.772136e-11 targ=  2.217521e-09 trig=  2.119800e-09
t_fall              =  1.220843e-10 targ=  3.267828e-09 trig=  3.145744e-09
Wn: 0.42
Wp: 1.84


********************************** Cycle 2 **********************************

Reset re-loads circuit **.subckt tb_fo4 out7 out6 out8 out9 out3 out2 out1

Circuit: **.subckt tb_fo4 out7 out6 out8 out9 out3 out2 out1

Reset re-loads circuit **.subckt tb_fo4 out7 out6 out8 out9 out3 out2 out1

Circuit: **.subckt tb_fo4 out7 out6 out8 out9 out3 out2 out1

Doing analysis at TEMP = 27.000000 and TNOM = 27.000000


Initial Transient Solution
--------------------------

Node                                   Voltage
----                                   -------
vss                                          0
vdd                                        1.8
vin                                          0
out1                               5.12356e-07
net1                                       1.8
out2                               5.12356e-07
out3                               5.12356e-07
out                                5.12356e-07
out6                                       1.8
out7                                       1.8
out8                                       1.8
out9                                       1.8
v3#branch                                    0
v2#branch                         -1.14247e-09
v1#branch                          1.14256e-09

 Reference value :  0.00000e+00 Reference value :  2.25445e-09 Reference value :  4.36345e-09
No. of Data Rows : 6041

t_rise              =  9.711590e-11 targ=  2.214873e-09 trig=  2.117757e-09
t_fall              =  1.188120e-10 targ=  3.264159e-09 trig=  3.145347e-09
Wn: 0.43
Wp: 1.83


********************************** Cycle 3 **********************************

Reset re-loads circuit **.subckt tb_fo4 out7 out6 out8 out9 out3 out2 out1

Circuit: **.subckt tb_fo4 out7 out6 out8 out9 out3 out2 out1

Reset re-loads circuit **.subckt tb_fo4 out7 out6 out8 out9 out3 out2 out1

Circuit: **.subckt tb_fo4 out7 out6 out8 out9 out3 out2 out1

Doing analysis at TEMP = 27.000000 and TNOM = 27.000000


Initial Transient Solution
--------------------------

Node                                   Voltage
----                                   -------
vss                                          0
vdd                                        1.8
vin                                          0
out1                               4.91084e-07
net1                                       1.8
out2                               4.91084e-07
out3                               4.91084e-07
out                                4.91084e-07
out6                                       1.8
out7                                       1.8
out8                                       1.8
out9                                       1.8
v3#branch                                    0
v2#branch                          -1.1331e-09
v1#branch                          1.13313e-09

 Reference value :  0.00000e+00 Reference value :  2.24245e-09 Reference value :  4.38945e-09
No. of Data Rows : 6041

t_rise              =  9.658824e-11 targ=  2.212439e-09 trig=  2.115851e-09
t_fall              =  1.157922e-10 targ=  3.260784e-09 trig=  3.144992e-09
Wn: 0.44
Wp: 1.82


********************************** Cycle 4 **********************************

Reset re-loads circuit **.subckt tb_fo4 out7 out6 out8 out9 out3 out2 out1

Circuit: **.subckt tb_fo4 out7 out6 out8 out9 out3 out2 out1

Reset re-loads circuit **.subckt tb_fo4 out7 out6 out8 out9 out3 out2 out1

Circuit: **.subckt tb_fo4 out7 out6 out8 out9 out3 out2 out1

Doing analysis at TEMP = 27.000000 and TNOM = 27.000000


Initial Transient Solution
--------------------------

Node                                   Voltage
----                                   -------
vss                                          0
vdd                                        1.8
vin                                          0
out1                               4.71214e-07
net1                                       1.8
out2                               4.71214e-07
out3                               4.71214e-07
out                                4.71214e-07
out6                                       1.8
out7                                       1.8
out8                                       1.8
out9                                       1.8
v3#branch                                    0
v2#branch                          -1.1236e-09
v1#branch                          1.12368e-09

 Reference value :  0.00000e+00 Reference value :  2.16945e-09 Reference value :  4.25945e-09
No. of Data Rows : 6041

t_rise              =  9.614704e-11 targ=  2.210216e-09 trig=  2.114069e-09
t_fall              =  1.129992e-10 targ=  3.257677e-09 trig=  3.144677e-09
Wn: 0.45
Wp: 1.81


********************************** Cycle 5 **********************************

Reset re-loads circuit **.subckt tb_fo4 out7 out6 out8 out9 out3 out2 out1

Circuit: **.subckt tb_fo4 out7 out6 out8 out9 out3 out2 out1

Reset re-loads circuit **.subckt tb_fo4 out7 out6 out8 out9 out3 out2 out1

Circuit: **.subckt tb_fo4 out7 out6 out8 out9 out3 out2 out1

Doing analysis at TEMP = 27.000000 and TNOM = 27.000000


Initial Transient Solution
--------------------------

Node                                   Voltage
----                                   -------
vss                                          0
vdd                                        1.8
vin                                          0
out1                               4.52609e-07
net1                                       1.8
out2                               4.52609e-07
out3                               4.52609e-07
out                                4.52609e-07
out6                                       1.8
out7                                       1.8
out8                                       1.8
out9                                       1.8
v3#branch                                    0
v2#branch                         -1.11415e-09
v1#branch                          1.11422e-09

 Reference value :  0.00000e+00 Reference value :  2.19545e-09 Reference value :  4.28645e-09
No. of Data Rows : 6041

t_rise              =  9.577269e-11 targ=  2.208173e-09 trig=  2.112400e-09
t_fall              =  1.103947e-10 targ=  3.254793e-09 trig=  3.144399e-09
Wn: 0.46
Wp: 1.8


********************************** Cycle 6 **********************************

Reset re-loads circuit **.subckt tb_fo4 out7 out6 out8 out9 out3 out2 out1

Circuit: **.subckt tb_fo4 out7 out6 out8 out9 out3 out2 out1

Reset re-loads circuit **.subckt tb_fo4 out7 out6 out8 out9 out3 out2 out1

Circuit: **.subckt tb_fo4 out7 out6 out8 out9 out3 out2 out1

Doing analysis at TEMP = 27.000000 and TNOM = 27.000000


Initial Transient Solution
--------------------------

Node                                   Voltage
----                                   -------
vss                                          0
vdd                                        1.8
vin                                          0
out1                               4.35148e-07
net1                                       1.8
out2                               4.35148e-07
out3                               4.35148e-07
out                                4.35148e-07
out6                                       1.8
out7                                       1.8
out8                                       1.8
out9                                       1.8
v3#branch                                    0
v2#branch                         -1.10466e-09
v1#branch                          1.10473e-09

 Reference value :  0.00000e+00 Reference value :  2.11445e-09 Reference value :  4.19745e-09
No. of Data Rows : 6041

t_rise              =  9.546756e-11 targ=  2.206295e-09 trig=  2.110827e-09
t_fall              =  1.079800e-10 targ=  3.252129e-09 trig=  3.144149e-09
Wn: 0.47
Wp: 1.79


********************************** Cycle 7 **********************************

Reset re-loads circuit **.subckt tb_fo4 out7 out6 out8 out9 out3 out2 out1

Circuit: **.subckt tb_fo4 out7 out6 out8 out9 out3 out2 out1

Reset re-loads circuit **.subckt tb_fo4 out7 out6 out8 out9 out3 out2 out1

Circuit: **.subckt tb_fo4 out7 out6 out8 out9 out3 out2 out1

Doing analysis at TEMP = 27.000000 and TNOM = 27.000000


Initial Transient Solution
--------------------------

Node                                   Voltage
----                                   -------
vss                                          0
vdd                                        1.8
vin                                          0
out1                               4.18725e-07
net1                                       1.8
out2                               4.18725e-07
out3                               4.18725e-07
out                                4.18725e-07
out6                                       1.8
out7                                       1.8
out8                                       1.8
out9                                       1.8
v3#branch                                    0
v2#branch                         -1.09514e-09
v1#branch                          1.09522e-09

 Reference value :  0.00000e+00 Reference value :  2.19545e-09 Reference value :  4.24745e-09
No. of Data Rows : 6041

t_rise              =  9.521958e-11 targ=  2.204570e-09 trig=  2.109351e-09
t_fall              =  1.057273e-10 targ=  3.249657e-09 trig=  3.143930e-09
Wn: 0.48
Wp: 1.78


********************************** Cycle 8 **********************************

Reset re-loads circuit **.subckt tb_fo4 out7 out6 out8 out9 out3 out2 out1

Circuit: **.subckt tb_fo4 out7 out6 out8 out9 out3 out2 out1

Reset re-loads circuit **.subckt tb_fo4 out7 out6 out8 out9 out3 out2 out1

Circuit: **.subckt tb_fo4 out7 out6 out8 out9 out3 out2 out1

Doing analysis at TEMP = 27.000000 and TNOM = 27.000000


Initial Transient Solution
--------------------------

Node                                   Voltage
----                                   -------
vss                                          0
vdd                                        1.8
vin                                          0
out1                               4.03247e-07
net1                                       1.8
out2                               4.03247e-07
out3                               4.03247e-07
out                                4.03247e-07
out6                                       1.8
out7                                       1.8
out8                                       1.8
out9                                       1.8
v3#branch                                    0
v2#branch                         -1.08569e-09
v1#branch                           1.0857e-09

 Reference value :  0.00000e+00 Reference value :  1.88941e-09 Reference value :  3.73441e-09 Reference value :  5.68341e-09
No. of Data Rows : 6041

t_rise              =  9.503328e-11 targ=  2.202986e-09 trig=  2.107953e-09
t_fall              =  1.036204e-10 targ=  3.247359e-09 trig=  3.143739e-09
Wn: 0.49
Wp: 1.77


********************************** Cycle 9 **********************************

Reset re-loads circuit **.subckt tb_fo4 out7 out6 out8 out9 out3 out2 out1

Circuit: **.subckt tb_fo4 out7 out6 out8 out9 out3 out2 out1

Reset re-loads circuit **.subckt tb_fo4 out7 out6 out8 out9 out3 out2 out1

Circuit: **.subckt tb_fo4 out7 out6 out8 out9 out3 out2 out1

Doing analysis at TEMP = 27.000000 and TNOM = 27.000000


Initial Transient Solution
--------------------------

Node                                   Voltage
----                                   -------
vss                                          0
vdd                                        1.8
vin                                          0
out1                               3.88633e-07
net1                                       1.8
out2                               3.88633e-07
out3                               3.88633e-07
out                                3.88633e-07
out6                                       1.8
out7                                       1.8
out8                                       1.8
out9                                       1.8
v3#branch                                    0
v2#branch                         -1.07605e-09
v1#branch                          1.07615e-09

 Reference value :  0.00000e+00 Reference value :  2.02650e-09 Reference value :  4.33445e-09
No. of Data Rows : 6041

t_rise              =  9.488996e-11 targ=  2.201526e-09 trig=  2.106636e-09
t_fall              =  1.016510e-10 targ=  3.245223e-09 trig=  3.143572e-09
Wn: 0.5
Wp: 1.76


********************************** Cycle 10 **********************************

Reset re-loads circuit **.subckt tb_fo4 out7 out6 out8 out9 out3 out2 out1

Circuit: **.subckt tb_fo4 out7 out6 out8 out9 out3 out2 out1

Reset re-loads circuit **.subckt tb_fo4 out7 out6 out8 out9 out3 out2 out1

Circuit: **.subckt tb_fo4 out7 out6 out8 out9 out3 out2 out1

Doing analysis at TEMP = 27.000000 and TNOM = 27.000000


Initial Transient Solution
--------------------------

Node                                   Voltage
----                                   -------
vss                                          0
vdd                                        1.8
vin                                          0
out1                               3.74809e-07
net1                                       1.8
out2                               3.74809e-07
out3                               3.74809e-07
out                                3.74809e-07
out6                                       1.8
out7                                       1.8
out8                                       1.8
out9                                       1.8
v3#branch                                    0
v2#branch                         -1.06656e-09
v1#branch                          1.06658e-09

 Reference value :  0.00000e+00 Reference value :  2.60945e-09 Reference value :  5.12041e-09
No. of Data Rows : 6041

t_rise              =  9.480594e-11 targ=  2.200194e-09 trig=  2.105388e-09
t_fall              =  9.981009e-11 targ=  3.243239e-09 trig=  3.143429e-09
Wn: 0.51
Wp: 1.75


********************************** Cycle 11 **********************************

Reset re-loads circuit **.subckt tb_fo4 out7 out6 out8 out9 out3 out2 out1

Circuit: **.subckt tb_fo4 out7 out6 out8 out9 out3 out2 out1

Reset re-loads circuit **.subckt tb_fo4 out7 out6 out8 out9 out3 out2 out1

Circuit: **.subckt tb_fo4 out7 out6 out8 out9 out3 out2 out1

Doing analysis at TEMP = 27.000000 and TNOM = 27.000000


Initial Transient Solution
--------------------------

Node                                   Voltage
----                                   -------
vss                                          0
vdd                                        1.8
vin                                          0
out1                                3.6171e-07
net1                                       1.8
out2                                3.6171e-07
out3                                3.6171e-07
out                                 3.6171e-07
out6                                       1.8
out7                                       1.8
out8                                       1.8
out9                                       1.8
v3#branch                                    0
v2#branch                         -1.05696e-09
v1#branch                          1.05698e-09

 Reference value :  0.00000e+00 Reference value :  2.57145e-09 Reference value :  4.86745e-09
No. of Data Rows : 6041

t_rise              =  9.476636e-11 targ=  2.198968e-09 trig=  2.104202e-09
t_fall              =  9.807912e-11 targ=  3.241384e-09 trig=  3.143305e-09
Wn: 0.52
Wp: 1.74


********************************** Cycle 12 **********************************

Reset re-loads circuit **.subckt tb_fo4 out7 out6 out8 out9 out3 out2 out1

Circuit: **.subckt tb_fo4 out7 out6 out8 out9 out3 out2 out1

Reset re-loads circuit **.subckt tb_fo4 out7 out6 out8 out9 out3 out2 out1

Circuit: **.subckt tb_fo4 out7 out6 out8 out9 out3 out2 out1

Doing analysis at TEMP = 27.000000 and TNOM = 27.000000


Initial Transient Solution
--------------------------

Node                                   Voltage
----                                   -------
vss                                          0
vdd                                        1.8
vin                                          0
out1                               3.50094e-07
net1                                       1.8
out2                               3.50094e-07
out3                               3.50094e-07
out                                3.50094e-07
out6                                       1.8
out7                                       1.8
out8                                       1.8
out9                                       1.8
v3#branch                                    0
v2#branch                         -1.04725e-09
v1#branch                          1.04734e-09

 Reference value :  0.00000e+00 Reference value :  2.50545e-09 Reference value :  4.79345e-09
No. of Data Rows : 6041

t_rise              =  9.482395e-11 targ=  2.198061e-09 trig=  2.103237e-09
t_fall              =  9.664625e-11 targ=  3.239937e-09 trig=  3.143291e-09
Wn: 0.53
Wp: 1.73


********************************** Cycle 13 **********************************

Reset re-loads circuit **.subckt tb_fo4 out7 out6 out8 out9 out3 out2 out1

Circuit: **.subckt tb_fo4 out7 out6 out8 out9 out3 out2 out1

Reset re-loads circuit **.subckt tb_fo4 out7 out6 out8 out9 out3 out2 out1

Circuit: **.subckt tb_fo4 out7 out6 out8 out9 out3 out2 out1

Doing analysis at TEMP = 27.000000 and TNOM = 27.000000


Initial Transient Solution
--------------------------

Node                                   Voltage
----                                   -------
vss                                          0
vdd                                        1.8
vin                                          0
out1                               3.39005e-07
net1                                       1.8
out2                               3.39005e-07
out3                               3.39005e-07
out                                3.39005e-07
out6                                       1.8
out7                                       1.8
out8                                       1.8
out9                                       1.8
v3#branch                                    0
v2#branch                         -1.03755e-09
v1#branch                          1.03767e-09

 Reference value :  0.00000e+00 Reference value :  1.99641e-09 Reference value :  3.97341e-09 Reference value :  5.94241e-09
No. of Data Rows : 6041

t_rise              =  9.491325e-11 targ=  2.197229e-09 trig=  2.102316e-09
t_fall              =  9.528486e-11 targ=  3.238576e-09 trig=  3.143291e-09
Wn: 0.54
Wp: 1.72


********************************** Cycle 14 **********************************

Reset re-loads circuit **.subckt tb_fo4 out7 out6 out8 out9 out3 out2 out1

Circuit: **.subckt tb_fo4 out7 out6 out8 out9 out3 out2 out1

Reset re-loads circuit **.subckt tb_fo4 out7 out6 out8 out9 out3 out2 out1

Circuit: **.subckt tb_fo4 out7 out6 out8 out9 out3 out2 out1

Doing analysis at TEMP = 27.000000 and TNOM = 27.000000


Initial Transient Solution
--------------------------

Node                                   Voltage
----                                   -------
vss                                          0
vdd                                        1.8
vin                                          0
out1                               3.74914e-07
net1                                       1.8
out2                               3.74914e-07
out3                               3.74914e-07
out                                3.74914e-07
out6                                       1.8
out7                                       1.8
out8                                       1.8
out9                                       1.8
v3#branch                                    0
v2#branch                         -1.02758e-09
v1#branch                          1.02766e-09

 Reference value :  0.00000e+00 Reference value :  2.04305e-09 Reference value :  3.94341e-09 Reference value :  5.97941e-09
No. of Data Rows : 6041

t_rise              =  9.765211e-11 targ=  2.204256e-09 trig=  2.106604e-09
t_fall              =  1.017357e-10 targ=  3.247337e-09 trig=  3.145601e-09
Wn: 0.55
Wp: 1.71


********************************** Cycle 15 **********************************

Reset re-loads circuit **.subckt tb_fo4 out7 out6 out8 out9 out3 out2 out1

Circuit: **.subckt tb_fo4 out7 out6 out8 out9 out3 out2 out1

Reset re-loads circuit **.subckt tb_fo4 out7 out6 out8 out9 out3 out2 out1

Circuit: **.subckt tb_fo4 out7 out6 out8 out9 out3 out2 out1

Doing analysis at TEMP = 27.000000 and TNOM = 27.000000


Initial Transient Solution
--------------------------

Node                                   Voltage
----                                   -------
vss                                          0
vdd                                        1.8
vin                                          0
out1                               3.49659e-07
net1                                       1.8
out2                               3.49659e-07
out3                               3.49659e-07
out                                3.49659e-07
out6                                       1.8
out7                                       1.8
out8                                       1.8
out9                                       1.8
v3#branch                                    0
v2#branch                         -1.01792e-09
v1#branch                          1.01799e-09

 Reference value :  0.00000e+00 Reference value :  2.03850e-09 Reference value :  4.11945e-09
No. of Data Rows : 6041

t_rise              =  9.694359e-11 targ=  2.201011e-09 trig=  2.104068e-09
t_fall              =  9.797753e-11 targ=  3.242869e-09 trig=  3.144892e-09
Wn: 0.56
Wp: 1.7


********************************** Cycle 16 **********************************

Reset re-loads circuit **.subckt tb_fo4 out7 out6 out8 out9 out3 out2 out1

Circuit: **.subckt tb_fo4 out7 out6 out8 out9 out3 out2 out1

Reset re-loads circuit **.subckt tb_fo4 out7 out6 out8 out9 out3 out2 out1

Circuit: **.subckt tb_fo4 out7 out6 out8 out9 out3 out2 out1

Doing analysis at TEMP = 27.000000 and TNOM = 27.000000


Initial Transient Solution
--------------------------

Node                                   Voltage
----                                   -------
vss                                          0
vdd                                        1.8
vin                                          0
out1                               3.26948e-07
net1                                       1.8
out2                               3.26948e-07
out3                               3.26948e-07
out                                3.26948e-07
out6                                       1.8
out7                                       1.8
out8                                       1.8
out9                                       1.8
v3#branch                                    0
v2#branch                         -1.00823e-09
v1#branch                           1.0083e-09

 Reference value :  0.00000e+00 Reference value :  2.52845e-09 Reference value :  4.77745e-09
No. of Data Rows : 6041

t_rise              =  9.638011e-11 targ=  2.198129e-09 trig=  2.101749e-09
t_fall              =  9.461041e-11 targ=  3.238857e-09 trig=  3.144247e-09
Wn: 0.57
Wp: 1.69


********************************** Cycle 17 **********************************

Reset re-loads circuit **.subckt tb_fo4 out7 out6 out8 out9 out3 out2 out1

Circuit: **.subckt tb_fo4 out7 out6 out8 out9 out3 out2 out1

Reset re-loads circuit **.subckt tb_fo4 out7 out6 out8 out9 out3 out2 out1

Circuit: **.subckt tb_fo4 out7 out6 out8 out9 out3 out2 out1

Doing analysis at TEMP = 27.000000 and TNOM = 27.000000


Initial Transient Solution
--------------------------

Node                                   Voltage
----                                   -------
vss                                          0
vdd                                        1.8
vin                                          0
out1                               3.06437e-07
net1                                       1.8
out2                               3.06437e-07
out3                               3.06437e-07
out                                3.06437e-07
out6                                       1.8
out7                                       1.8
out8                                       1.8
out9                                       1.8
v3#branch                                    0
v2#branch                         -9.98584e-10
v1#branch                          9.98588e-10

 Reference value :  0.00000e+00 Reference value :  2.42745e-09 Reference value :  4.77645e-09
No. of Data Rows : 6041

t_rise              =  9.594168e-11 targ=  2.195561e-09 trig=  2.099619e-09
t_fall              =  9.156561e-11 targ=  3.235223e-09 trig=  3.143657e-09
Wn: 0.58
Wp: 1.68


********************************** Cycle 18 **********************************

Reset re-loads circuit **.subckt tb_fo4 out7 out6 out8 out9 out3 out2 out1

Circuit: **.subckt tb_fo4 out7 out6 out8 out9 out3 out2 out1

Reset re-loads circuit **.subckt tb_fo4 out7 out6 out8 out9 out3 out2 out1

Circuit: **.subckt tb_fo4 out7 out6 out8 out9 out3 out2 out1

Doing analysis at TEMP = 27.000000 and TNOM = 27.000000


Initial Transient Solution
--------------------------

Node                                   Voltage
----                                   -------
vss                                          0
vdd                                        1.8
vin                                          0
out1                                2.8956e-07
net1                                       1.8
out2                                2.8956e-07
out3                                2.8956e-07
out                                 2.8956e-07
out6                                       1.8
out7                                       1.8
out8                                       1.8
out9                                       1.8
v3#branch                                    0
v2#branch                         -9.39814e-10
v1#branch                            9.399e-10

 Reference value :  0.00000e+00 Reference value :  2.46245e-09 Reference value :  4.69145e-09
No. of Data Rows : 6041

t_rise              =  9.588821e-11 targ=  2.195029e-09 trig=  2.099140e-09
t_fall              =  9.149737e-11 targ=  3.234837e-09 trig=  3.143340e-09
Wn: 0.59
Wp: 1.67


********************************** Cycle 19 **********************************

Reset re-loads circuit **.subckt tb_fo4 out7 out6 out8 out9 out3 out2 out1

Circuit: **.subckt tb_fo4 out7 out6 out8 out9 out3 out2 out1

Reset re-loads circuit **.subckt tb_fo4 out7 out6 out8 out9 out3 out2 out1

Circuit: **.subckt tb_fo4 out7 out6 out8 out9 out3 out2 out1

Doing analysis at TEMP = 27.000000 and TNOM = 27.000000


Initial Transient Solution
--------------------------

Node                                   Voltage
----                                   -------
vss                                          0
vdd                                        1.8
vin                                          0
out1                               2.71971e-07
net1                                       1.8
out2                               2.71971e-07
out3                               2.71971e-07
out                                2.71971e-07
out6                                       1.8
out7                                       1.8
out8                                       1.8
out9                                       1.8
v3#branch                                    0
v2#branch                         -8.78819e-10
v1#branch                          8.78881e-10

 Reference value :  0.00000e+00 Reference value :  2.52645e-09 Reference value :  4.85745e-09
No. of Data Rows : 6041

t_rise              =  9.583877e-11 targ=  2.194542e-09 trig=  2.098704e-09
t_fall              =  9.147166e-11 targ=  3.234504e-09 trig=  3.143032e-09
Wn: 0.6
Wp: 1.66


********************************** Cycle 20 **********************************

Reset re-loads circuit **.subckt tb_fo4 out7 out6 out8 out9 out3 out2 out1

Circuit: **.subckt tb_fo4 out7 out6 out8 out9 out3 out2 out1

Reset re-loads circuit **.subckt tb_fo4 out7 out6 out8 out9 out3 out2 out1

Circuit: **.subckt tb_fo4 out7 out6 out8 out9 out3 out2 out1

Doing analysis at TEMP = 27.000000 and TNOM = 27.000000


Initial Transient Solution
--------------------------

Node                                   Voltage
----                                   -------
vss                                          0
vdd                                        1.8
vin                                          0
out1                               2.39911e-07
net1                                       1.8
out2                               2.39911e-07
out3                               2.39911e-07
out                                2.39911e-07
out6                                       1.8
out7                                       1.8
out8                                       1.8
out9                                       1.8
v3#branch                                    0
v2#branch                         -8.16108e-10
v1#branch                          8.16139e-10

 Reference value :  0.00000e+00 Reference value :  2.16445e-09 Reference value :  4.16645e-09
No. of Data Rows : 6041

t_rise              =  9.492380e-11 targ=  2.191669e-09 trig=  2.096746e-09
t_fall              =  8.894347e-11 targ=  3.231015e-09 trig=  3.142072e-09
Wn: 0.61
Wp: 1.65


********************************** Cycle 21 **********************************

Reset re-loads circuit **.subckt tb_fo4 out7 out6 out8 out9 out3 out2 out1

Circuit: **.subckt tb_fo4 out7 out6 out8 out9 out3 out2 out1

Reset re-loads circuit **.subckt tb_fo4 out7 out6 out8 out9 out3 out2 out1

Circuit: **.subckt tb_fo4 out7 out6 out8 out9 out3 out2 out1

Doing analysis at TEMP = 27.000000 and TNOM = 27.000000


Initial Transient Solution
--------------------------

Node                                   Voltage
----                                   -------
vss                                          0
vdd                                        1.8
vin                                          0
out1                               2.27785e-07
net1                                       1.8
out2                               2.27785e-07
out3                               2.27785e-07
out                                2.27785e-07
out6                                       1.8
out7                                       1.8
out8                                       1.8
out9                                       1.8
v3#branch                                    0
v2#branch                         -7.96897e-10
v1#branch                             7.97e-10

 Reference value :  0.00000e+00 Reference value :  2.45945e-09 Reference value :  4.69045e-09
No. of Data Rows : 6041

t_rise              =  9.523312e-11 targ=  2.191908e-09 trig=  2.096675e-09
t_fall              =  8.839009e-11 targ=  3.230854e-09 trig=  3.142464e-09
Wn: 0.62
Wp: 1.64


********************************** Cycle 22 **********************************

Reset re-loads circuit **.subckt tb_fo4 out7 out6 out8 out9 out3 out2 out1

Circuit: **.subckt tb_fo4 out7 out6 out8 out9 out3 out2 out1

Reset re-loads circuit **.subckt tb_fo4 out7 out6 out8 out9 out3 out2 out1

Circuit: **.subckt tb_fo4 out7 out6 out8 out9 out3 out2 out1

Doing analysis at TEMP = 27.000000 and TNOM = 27.000000


Initial Transient Solution
--------------------------

Node                                   Voltage
----                                   -------
vss                                          0
vdd                                        1.8
vin                                          0
out1                               2.16387e-07
net1                                       1.8
out2                               2.16387e-07
out3                               2.16387e-07
out                                2.16387e-07
out6                                       1.8
out7                                       1.8
out8                                       1.8
out9                                       1.8
v3#branch                                    0
v2#branch                         -7.78043e-10
v1#branch                           7.7811e-10

 Reference value :  0.00000e+00 Reference value :  2.40445e-09 Reference value :  4.62745e-09
No. of Data Rows : 6041

t_rise              =  9.557210e-11 targ=  2.192206e-09 trig=  2.096634e-09
t_fall              =  8.791728e-11 targ=  3.230781e-09 trig=  3.142864e-09
Wn: 0.63
Wp: 1.63


********************************** Cycle 23 **********************************

Reset re-loads circuit **.subckt tb_fo4 out7 out6 out8 out9 out3 out2 out1

Circuit: **.subckt tb_fo4 out7 out6 out8 out9 out3 out2 out1

Reset re-loads circuit **.subckt tb_fo4 out7 out6 out8 out9 out3 out2 out1

Circuit: **.subckt tb_fo4 out7 out6 out8 out9 out3 out2 out1

Doing analysis at TEMP = 27.000000 and TNOM = 27.000000


Initial Transient Solution
--------------------------

Node                                   Voltage
----                                   -------
vss                                          0
vdd                                        1.8
vin                                          0
out1                               2.05658e-07
net1                                       1.8
out2                               2.05658e-07
out3                               2.05658e-07
out                                2.05658e-07
out6                                       1.8
out7                                       1.8
out8                                       1.8
out9                                       1.8
v3#branch                                    0
v2#branch                         -7.59389e-10
v1#branch                          7.59468e-10

 Reference value :  0.00000e+00 Reference value :  2.39745e-09 Reference value :  4.62245e-09
No. of Data Rows : 6041

t_rise              =  9.594230e-11 targ=  2.192563e-09 trig=  2.096621e-09
t_fall              =  8.750207e-11 targ=  3.230782e-09 trig=  3.143280e-09
Wn: 0.64
Wp: 1.62


********************************** Cycle 24 **********************************

Reset re-loads circuit **.subckt tb_fo4 out7 out6 out8 out9 out3 out2 out1

Circuit: **.subckt tb_fo4 out7 out6 out8 out9 out3 out2 out1

Reset re-loads circuit **.subckt tb_fo4 out7 out6 out8 out9 out3 out2 out1

Circuit: **.subckt tb_fo4 out7 out6 out8 out9 out3 out2 out1

Doing analysis at TEMP = 27.000000 and TNOM = 27.000000


Initial Transient Solution
--------------------------

Node                                   Voltage
----                                   -------
vss                                          0
vdd                                        1.8
vin                                          0
out1                               1.87371e-07
net1                                       1.8
out2                               1.87371e-07
out3                               1.87371e-07
out                                1.87371e-07
out6                                       1.8
out7                                       1.8
out8                                       1.8
out9                                       1.8
v3#branch                                    0
v2#branch                          -7.4127e-10
v1#branch                          7.41363e-10

 Reference value :  0.00000e+00 Reference value :  2.39545e-09 Reference value :  4.59345e-09
No. of Data Rows : 6041

t_rise              =  9.531826e-11 targ=  2.188480e-09 trig=  2.093162e-09
t_fall              =  8.322819e-11 targ=  3.225141e-09 trig=  3.141913e-09
Wn: 0.65
Wp: 1.61


********************************** Cycle 25 **********************************

Reset re-loads circuit **.subckt tb_fo4 out7 out6 out8 out9 out3 out2 out1

Circuit: **.subckt tb_fo4 out7 out6 out8 out9 out3 out2 out1

Reset re-loads circuit **.subckt tb_fo4 out7 out6 out8 out9 out3 out2 out1

Circuit: **.subckt tb_fo4 out7 out6 out8 out9 out3 out2 out1

Doing analysis at TEMP = 27.000000 and TNOM = 27.000000


Initial Transient Solution
--------------------------

Node                                   Voltage
----                                   -------
vss                                          0
vdd                                        1.8
vin                                          0
out1                               1.81643e-07
net1                                       1.8
out2                               1.81643e-07
out3                               1.81643e-07
out                                1.81643e-07
out6                                       1.8
out7                                       1.8
out8                                       1.8
out9                                       1.8
v3#branch                                    0
v2#branch                         -7.23182e-10
v1#branch                          7.23227e-10

 Reference value :  0.00000e+00 Reference value :  2.30545e-09 Reference value :  4.47245e-09
No. of Data Rows : 6041

t_rise              =  9.586845e-11 targ=  2.188857e-09 trig=  2.092989e-09
t_fall              =  8.299659e-11 targ=  3.225222e-09 trig=  3.142225e-09
Wn: 0.66
Wp: 1.6


********************************** Cycle 26 **********************************

Reset re-loads circuit **.subckt tb_fo4 out7 out6 out8 out9 out3 out2 out1

Circuit: **.subckt tb_fo4 out7 out6 out8 out9 out3 out2 out1

Reset re-loads circuit **.subckt tb_fo4 out7 out6 out8 out9 out3 out2 out1

Circuit: **.subckt tb_fo4 out7 out6 out8 out9 out3 out2 out1

Doing analysis at TEMP = 27.000000 and TNOM = 27.000000


Initial Transient Solution
--------------------------

Node                                   Voltage
----                                   -------
vss                                          0
vdd                                        1.8
vin                                          0
out1                               1.76038e-07
net1                                       1.8
out2                               1.76038e-07
out3                               1.76038e-07
out                                1.76038e-07
out6                                       1.8
out7                                       1.8
out8                                       1.8
out9                                       1.8
v3#branch                                    0
v2#branch                         -7.05253e-10
v1#branch                          7.05324e-10

 Reference value :  0.00000e+00 Reference value :  2.41245e-09 Reference value :  4.63045e-09
No. of Data Rows : 6041

t_rise              =  9.642577e-11 targ=  2.189248e-09 trig=  2.092823e-09
t_fall              =  8.277608e-11 targ=  3.225320e-09 trig=  3.142544e-09
Wn: 0.67
Wp: 1.59


********************************** Cycle 27 **********************************

Reset re-loads circuit **.subckt tb_fo4 out7 out6 out8 out9 out3 out2 out1

Circuit: **.subckt tb_fo4 out7 out6 out8 out9 out3 out2 out1

Reset re-loads circuit **.subckt tb_fo4 out7 out6 out8 out9 out3 out2 out1

Circuit: **.subckt tb_fo4 out7 out6 out8 out9 out3 out2 out1

Doing analysis at TEMP = 27.000000 and TNOM = 27.000000


Initial Transient Solution
--------------------------

Node                                   Voltage
----                                   -------
vss                                          0
vdd                                        1.8
vin                                          0
out1                               1.70555e-07
net1                                       1.8
out2                               1.70555e-07
out3                               1.70555e-07
out                                1.70555e-07
out6                                       1.8
out7                                       1.8
out8                                       1.8
out9                                       1.8
v3#branch                                    0
v2#branch                         -6.87578e-10
v1#branch                          6.87655e-10

 Reference value :  0.00000e+00 Reference value :  2.04295e-09 Reference value :  4.00000e-09 Reference value :  5.93741e-09
No. of Data Rows : 6041

t_rise              =  9.700033e-11 targ=  2.189664e-09 trig=  2.092664e-09
t_fall              =  8.257225e-11 targ=  3.225439e-09 trig=  3.142867e-09
Wn: 0.68
Wp: 1.58


********************************** Cycle 28 **********************************

Reset re-loads circuit **.subckt tb_fo4 out7 out6 out8 out9 out3 out2 out1

Circuit: **.subckt tb_fo4 out7 out6 out8 out9 out3 out2 out1

Reset re-loads circuit **.subckt tb_fo4 out7 out6 out8 out9 out3 out2 out1

Circuit: **.subckt tb_fo4 out7 out6 out8 out9 out3 out2 out1

Doing analysis at TEMP = 27.000000 and TNOM = 27.000000


Initial Transient Solution
--------------------------

Node                                   Voltage
----                                   -------
vss                                          0
vdd                                        1.8
vin                                          0
out1                               1.65192e-07
net1                                       1.8
out2                               1.65192e-07
out3                               1.65192e-07
out                                1.65192e-07
out6                                       1.8
out7                                       1.8
out8                                       1.8
out9                                       1.8
v3#branch                                    0
v2#branch                         -6.70184e-10
v1#branch                          6.70221e-10

 Reference value :  0.00000e+00 Reference value :  2.29645e-09 Reference value :  4.56345e-09
No. of Data Rows : 6041

t_rise              =  9.758965e-11 targ=  2.190102e-09 trig=  2.092512e-09
t_fall              =  8.237896e-11 targ=  3.225580e-09 trig=  3.143201e-09
Wn: 0.69
Wp: 1.57


********************************** Cycle 29 **********************************

Reset re-loads circuit **.subckt tb_fo4 out7 out6 out8 out9 out3 out2 out1

Circuit: **.subckt tb_fo4 out7 out6 out8 out9 out3 out2 out1

Reset re-loads circuit **.subckt tb_fo4 out7 out6 out8 out9 out3 out2 out1

Circuit: **.subckt tb_fo4 out7 out6 out8 out9 out3 out2 out1

Doing analysis at TEMP = 27.000000 and TNOM = 27.000000


Initial Transient Solution
--------------------------

Node                                   Voltage
----                                   -------
vss                                          0
vdd                                        1.8
vin                                          0
out1                               1.59947e-07
net1                                       1.8
out2                               1.59947e-07
out3                               1.59947e-07
out                                1.59947e-07
out6                                       1.8
out7                                       1.8
out8                                       1.8
out9                                       1.8
v3#branch                                    0
v2#branch                         -6.52989e-10
v1#branch                          6.53024e-10

 Reference value :  0.00000e+00 Reference value :  2.31345e-09 Reference value :  4.60045e-09
No. of Data Rows : 6041

t_rise              =  9.818918e-11 targ=  2.190553e-09 trig=  2.092364e-09
t_fall              =  8.220239e-11 targ=  3.225743e-09 trig=  3.143541e-09
Wn: 0.7
Wp: 1.56


********************************** Cycle 30 **********************************

Reset re-loads circuit **.subckt tb_fo4 out7 out6 out8 out9 out3 out2 out1

Circuit: **.subckt tb_fo4 out7 out6 out8 out9 out3 out2 out1

Reset re-loads circuit **.subckt tb_fo4 out7 out6 out8 out9 out3 out2 out1

Circuit: **.subckt tb_fo4 out7 out6 out8 out9 out3 out2 out1

Doing analysis at TEMP = 27.000000 and TNOM = 27.000000


Initial Transient Solution
--------------------------

Node                                   Voltage
----                                   -------
vss                                          0
vdd                                        1.8
vin                                          0
out1                                1.5482e-07
net1                                       1.8
out2                                1.5482e-07
out3                                1.5482e-07
out                                 1.5482e-07
out6                                       1.8
out7                                       1.8
out8                                       1.8
out9                                       1.8
v3#branch                                    0
v2#branch                         -6.36035e-10
v1#branch                          6.36063e-10

 Reference value :  0.00000e+00 Reference value :  2.18045e-09 Reference value :  4.36745e-09 Reference value :  5.42541e-09
No. of Data Rows : 6041

t_rise              =  9.881242e-11 targ=  2.191033e-09 trig=  2.092221e-09
t_fall              =  8.204002e-11 targ=  3.225925e-09 trig=  3.143885e-09
Wn: 0.71
Wp: 1.55


********************************** Cycle 31 **********************************

Reset re-loads circuit **.subckt tb_fo4 out7 out6 out8 out9 out3 out2 out1

Circuit: **.subckt tb_fo4 out7 out6 out8 out9 out3 out2 out1

Reset re-loads circuit **.subckt tb_fo4 out7 out6 out8 out9 out3 out2 out1

Circuit: **.subckt tb_fo4 out7 out6 out8 out9 out3 out2 out1

Doing analysis at TEMP = 27.000000 and TNOM = 27.000000


Initial Transient Solution
--------------------------

Node                                   Voltage
----                                   -------
vss                                          0
vdd                                        1.8
vin                                          0
out1                               1.49808e-07
net1                                       1.8
out2                               1.49808e-07
out3                               1.49808e-07
out                                1.49808e-07
out6                                       1.8
out7                                       1.8
out8                                       1.8
out9                                       1.8
v3#branch                                    0
v2#branch                         -6.19313e-10
v1#branch                          6.19341e-10

 Reference value :  0.00000e+00 Reference value :  2.25545e-09 Reference value :  4.47645e-09
No. of Data Rows : 6041

t_rise              =  9.944659e-11 targ=  2.191531e-09 trig=  2.092084e-09
t_fall              =  8.187687e-11 targ=  3.226118e-09 trig=  3.144241e-09
Wn: 0.72
Wp: 1.54


********************************** Cycle 32 **********************************

Reset re-loads circuit **.subckt tb_fo4 out7 out6 out8 out9 out3 out2 out1

Circuit: **.subckt tb_fo4 out7 out6 out8 out9 out3 out2 out1

Reset re-loads circuit **.subckt tb_fo4 out7 out6 out8 out9 out3 out2 out1

Circuit: **.subckt tb_fo4 out7 out6 out8 out9 out3 out2 out1

Doing analysis at TEMP = 27.000000 and TNOM = 27.000000


Initial Transient Solution
--------------------------

Node                                   Voltage
----                                   -------
vss                                          0
vdd                                        1.8
vin                                          0
out1                                1.4491e-07
net1                                       1.8
out2                                1.4491e-07
out3                                1.4491e-07
out                                 1.4491e-07
out6                                       1.8
out7                                       1.8
out8                                       1.8
out9                                       1.8
v3#branch                                    0
v2#branch                         -6.02808e-10
v1#branch                          6.02858e-10

 Reference value :  0.00000e+00 Reference value :  2.27145e-09 Reference value :  4.46845e-09
No. of Data Rows : 6041

t_rise              =  1.000998e-10 targ=  2.192053e-09 trig=  2.091953e-09
t_fall              =  8.172948e-11 targ=  3.226332e-09 trig=  3.144603e-09
Wn: 0.73
Wp: 1.53


********************************** Cycle 33 **********************************

Reset re-loads circuit **.subckt tb_fo4 out7 out6 out8 out9 out3 out2 out1

Circuit: **.subckt tb_fo4 out7 out6 out8 out9 out3 out2 out1

Reset re-loads circuit **.subckt tb_fo4 out7 out6 out8 out9 out3 out2 out1

Circuit: **.subckt tb_fo4 out7 out6 out8 out9 out3 out2 out1

Doing analysis at TEMP = 27.000000 and TNOM = 27.000000


Initial Transient Solution
--------------------------

Node                                   Voltage
----                                   -------
vss                                          0
vdd                                        1.8
vin                                          0
out1                               1.40125e-07
net1                                       1.8
out2                               1.40125e-07
out3                               1.40125e-07
out                                1.40125e-07
out6                                       1.8
out7                                       1.8
out8                                       1.8
out9                                       1.8
v3#branch                                    0
v2#branch                         -5.86571e-10
v1#branch                          5.86615e-10

 Reference value :  0.00000e+00 Reference value :  2.15245e-09 Reference value :  4.37945e-09
No. of Data Rows : 6041

t_rise              =  1.007630e-10 targ=  2.192592e-09 trig=  2.091829e-09
t_fall              =  8.159838e-11 targ=  3.226568e-09 trig=  3.144970e-09
Wn: 0.74
Wp: 1.52


********************************** Cycle 34 **********************************

Reset re-loads circuit **.subckt tb_fo4 out7 out6 out8 out9 out3 out2 out1

Circuit: **.subckt tb_fo4 out7 out6 out8 out9 out3 out2 out1

Reset re-loads circuit **.subckt tb_fo4 out7 out6 out8 out9 out3 out2 out1

Circuit: **.subckt tb_fo4 out7 out6 out8 out9 out3 out2 out1

Doing analysis at TEMP = 27.000000 and TNOM = 27.000000


Initial Transient Solution
--------------------------

Node                                   Voltage
----                                   -------
vss                                          0
vdd                                        1.8
vin                                          0
out1                               1.34711e-07
net1                                       1.8
out2                               1.34711e-07
out3                               1.34711e-07
out                                1.34711e-07
out6                                       1.8
out7                                       1.8
out8                                       1.8
out9                                       1.8
v3#branch                                    0
v2#branch                          -5.7061e-10
v1#branch                          5.70632e-10

 Reference value :  0.00000e+00 Reference value :  1.57441e-09 Reference value :  3.34441e-09 Reference value :  5.15941e-09
No. of Data Rows : 6041

t_rise              =  1.013610e-10 targ=  2.192808e-09 trig=  2.091447e-09
t_fall              =  8.115630e-11 targ=  3.226356e-09 trig=  3.145199e-09
Wn: 0.75
Wp: 1.51


********************************** Cycle 35 **********************************

Reset re-loads circuit **.subckt tb_fo4 out7 out6 out8 out9 out3 out2 out1

Circuit: **.subckt tb_fo4 out7 out6 out8 out9 out3 out2 out1

Reset re-loads circuit **.subckt tb_fo4 out7 out6 out8 out9 out3 out2 out1

Circuit: **.subckt tb_fo4 out7 out6 out8 out9 out3 out2 out1

Doing analysis at TEMP = 27.000000 and TNOM = 27.000000


Initial Transient Solution
--------------------------

Node                                   Voltage
----                                   -------
vss                                          0
vdd                                        1.8
vin                                          0
out1                               1.29476e-07
net1                                       1.8
out2                               1.29476e-07
out3                               1.29476e-07
out                                1.29476e-07
out6                                       1.8
out7                                       1.8
out8                                       1.8
out9                                       1.8
v3#branch                                    0
v2#branch                         -5.54859e-10
v1#branch                           5.5489e-10

 Reference value :  0.00000e+00 Reference value :  2.26945e-09 Reference value :  4.47745e-09
No. of Data Rows : 6041

t_rise              =  1.019841e-10 targ=  2.193056e-09 trig=  2.091072e-09
t_fall              =  8.073891e-11 targ=  3.226179e-09 trig=  3.145440e-09
Wn: 0.76
Wp: 1.5


********************************** Cycle 36 **********************************

Reset re-loads circuit **.subckt tb_fo4 out7 out6 out8 out9 out3 out2 out1

Circuit: **.subckt tb_fo4 out7 out6 out8 out9 out3 out2 out1

Reset re-loads circuit **.subckt tb_fo4 out7 out6 out8 out9 out3 out2 out1

Circuit: **.subckt tb_fo4 out7 out6 out8 out9 out3 out2 out1

Doing analysis at TEMP = 27.000000 and TNOM = 27.000000


Initial Transient Solution
--------------------------

Node                                   Voltage
----                                   -------
vss                                          0
vdd                                        1.8
vin                                          0
out1                               1.24414e-07
net1                                       1.8
out2                               1.24414e-07
out3                               1.24414e-07
out                                1.24414e-07
out6                                       1.8
out7                                       1.8
out8                                       1.8
out9                                       1.8
v3#branch                                    0
v2#branch                         -5.39362e-10
v1#branch                           5.3939e-10

 Reference value :  0.00000e+00 Reference value :  1.87841e-09 Reference value :  3.69841e-09 Reference value :  5.61941e-09
No. of Data Rows : 6041

t_rise              =  1.026242e-10 targ=  2.193339e-09 trig=  2.090714e-09
t_fall              =  8.034294e-11 targ=  3.226030e-09 trig=  3.145687e-09
Wn: 0.77
Wp: 1.49


********************************** Cycle 37 **********************************

Reset re-loads circuit **.subckt tb_fo4 out7 out6 out8 out9 out3 out2 out1

Circuit: **.subckt tb_fo4 out7 out6 out8 out9 out3 out2 out1

Reset re-loads circuit **.subckt tb_fo4 out7 out6 out8 out9 out3 out2 out1

Circuit: **.subckt tb_fo4 out7 out6 out8 out9 out3 out2 out1

Doing analysis at TEMP = 27.000000 and TNOM = 27.000000


Initial Transient Solution
--------------------------

Node                                   Voltage
----                                   -------
vss                                          0
vdd                                        1.8
vin                                          0
out1                                1.1952e-07
net1                                       1.8
out2                                1.1952e-07
out3                                1.1952e-07
out                                 1.1952e-07
out6                                       1.8
out7                                       1.8
out8                                       1.8
out9                                       1.8
v3#branch                                    0
v2#branch                         -5.24095e-10
v1#branch                          5.24132e-10

 Reference value :  0.00000e+00 Reference value :  1.81841e-09 Reference value :  3.66041e-09 Reference value :  5.68341e-09
No. of Data Rows : 6041

t_rise              =  1.032887e-10 targ=  2.193660e-09 trig=  2.090371e-09
t_fall              =  7.996907e-11 targ=  3.225916e-09 trig=  3.145947e-09
Wn: 0.78
Wp: 1.48


********************************** Cycle 38 **********************************

Reset re-loads circuit **.subckt tb_fo4 out7 out6 out8 out9 out3 out2 out1

Circuit: **.subckt tb_fo4 out7 out6 out8 out9 out3 out2 out1

Reset re-loads circuit **.subckt tb_fo4 out7 out6 out8 out9 out3 out2 out1

Circuit: **.subckt tb_fo4 out7 out6 out8 out9 out3 out2 out1

Doing analysis at TEMP = 27.000000 and TNOM = 27.000000


Initial Transient Solution
--------------------------

Node                                   Voltage
----                                   -------
vss                                          0
vdd                                        1.8
vin                                          0
out1                               1.14787e-07
net1                                       1.8
out2                               1.14787e-07
out3                               1.14787e-07
out                                1.14787e-07
out6                                       1.8
out7                                       1.8
out8                                       1.8
out9                                       1.8
v3#branch                                    0
v2#branch                         -5.09038e-10
v1#branch                          5.09118e-10

 Reference value :  0.00000e+00 Reference value :  2.17345e-09 Reference value :  4.28145e-09
No. of Data Rows : 6041

t_rise              =  1.039796e-10 targ=  2.194016e-09 trig=  2.090037e-09
t_fall              =  7.961572e-11 targ=  3.225833e-09 trig=  3.146217e-09
Wn: 0.79
Wp: 1.47


********************************** Cycle 39 **********************************

Reset re-loads circuit **.subckt tb_fo4 out7 out6 out8 out9 out3 out2 out1

Circuit: **.subckt tb_fo4 out7 out6 out8 out9 out3 out2 out1

Reset re-loads circuit **.subckt tb_fo4 out7 out6 out8 out9 out3 out2 out1

Circuit: **.subckt tb_fo4 out7 out6 out8 out9 out3 out2 out1

Doing analysis at TEMP = 27.000000 and TNOM = 27.000000


Initial Transient Solution
--------------------------

Node                                   Voltage
----                                   -------
vss                                          0
vdd                                        1.8
vin                                          0
out1                               1.10212e-07
net1                                       1.8
out2                               1.10212e-07
out3                               1.10212e-07
out                                1.10212e-07
out6                                       1.8
out7                                       1.8
out8                                       1.8
out9                                       1.8
v3#branch                                    0
v2#branch                         -4.94294e-10
v1#branch                          4.94347e-10

 Reference value :  0.00000e+00 Reference value :  2.18845e-09 Reference value :  4.22445e-09
No. of Data Rows : 6041

t_rise              =  1.046807e-10 targ=  2.194398e-09 trig=  2.089718e-09
t_fall              =  7.928057e-11 targ=  3.225780e-09 trig=  3.146500e-09
Wn: 0.8
Wp: 1.46


********************************** Cycle 40 **********************************

Reset re-loads circuit **.subckt tb_fo4 out7 out6 out8 out9 out3 out2 out1

Circuit: **.subckt tb_fo4 out7 out6 out8 out9 out3 out2 out1

Reset re-loads circuit **.subckt tb_fo4 out7 out6 out8 out9 out3 out2 out1

Circuit: **.subckt tb_fo4 out7 out6 out8 out9 out3 out2 out1

Doing analysis at TEMP = 27.000000 and TNOM = 27.000000


Initial Transient Solution
--------------------------

Node                                   Voltage
----                                   -------
vss                                          0
vdd                                        1.8
vin                                          0
out1                               1.05788e-07
net1                                       1.8
out2                               1.05788e-07
out3                               1.05788e-07
out                                1.05788e-07
out6                                       1.8
out7                                       1.8
out8                                       1.8
out9                                       1.8
v3#branch                                    0
v2#branch                         -4.79769e-10
v1#branch                          4.79822e-10

 Reference value :  0.00000e+00 Reference value :  2.13345e-09 Reference value :  4.13845e-09 Reference value :  5.95441e-09
No. of Data Rows : 6041

t_rise              =  1.054143e-10 targ=  2.194826e-09 trig=  2.089412e-09
t_fall              =  7.895984e-11 targ=  3.225749e-09 trig=  3.146789e-09
Wn: 0.81
Wp: 1.45


********************************** Cycle 41 **********************************

Reset re-loads circuit **.subckt tb_fo4 out7 out6 out8 out9 out3 out2 out1

Circuit: **.subckt tb_fo4 out7 out6 out8 out9 out3 out2 out1

Reset re-loads circuit **.subckt tb_fo4 out7 out6 out8 out9 out3 out2 out1

Circuit: **.subckt tb_fo4 out7 out6 out8 out9 out3 out2 out1

Doing analysis at TEMP = 27.000000 and TNOM = 27.000000


Initial Transient Solution
--------------------------

Node                                   Voltage
----                                   -------
vss                                          0
vdd                                        1.8
vin                                          0
out1                               1.01512e-07
net1                                       1.8
out2                               1.01512e-07
out3                               1.01512e-07
out                                1.01512e-07
out6                                       1.8
out7                                       1.8
out8                                       1.8
out9                                       1.8
v3#branch                                    0
v2#branch                          -4.6548e-10
v1#branch                          4.65541e-10

 Reference value :  0.00000e+00 Reference value :  2.27145e-09 Reference value :  4.30945e-09
No. of Data Rows : 6041

t_rise              =  1.061723e-10 targ=  2.195285e-09 trig=  2.089113e-09
t_fall              =  7.865870e-11 targ=  3.225750e-09 trig=  3.147092e-09
Wn: 0.82
Wp: 1.44


********************************** Cycle 42 **********************************

Reset re-loads circuit **.subckt tb_fo4 out7 out6 out8 out9 out3 out2 out1

Circuit: **.subckt tb_fo4 out7 out6 out8 out9 out3 out2 out1

Reset re-loads circuit **.subckt tb_fo4 out7 out6 out8 out9 out3 out2 out1

Circuit: **.subckt tb_fo4 out7 out6 out8 out9 out3 out2 out1

Doing analysis at TEMP = 27.000000 and TNOM = 27.000000


Initial Transient Solution
--------------------------

Node                                   Voltage
----                                   -------
vss                                          0
vdd                                        1.8
vin                                          0
out1                               9.73776e-08
net1                                       1.8
out2                               9.73776e-08
out3                               9.73776e-08
out                                9.73776e-08
out6                                       1.8
out7                                       1.8
out8                                       1.8
out9                                       1.8
v3#branch                                    0
v2#branch                          -4.5144e-10
v1#branch                          4.51507e-10

 Reference value :  0.00000e+00 Reference value :  2.22045e-09 Reference value :  4.23645e-09
No. of Data Rows : 6041

t_rise              =  1.069418e-10 targ=  2.195769e-09 trig=  2.088828e-09
t_fall              =  7.837253e-11 targ=  3.225778e-09 trig=  3.147406e-09
Wn: 0.83
Wp: 1.43


********************************** Cycle 43 **********************************

Reset re-loads circuit **.subckt tb_fo4 out7 out6 out8 out9 out3 out2 out1

Circuit: **.subckt tb_fo4 out7 out6 out8 out9 out3 out2 out1

Reset re-loads circuit **.subckt tb_fo4 out7 out6 out8 out9 out3 out2 out1

Circuit: **.subckt tb_fo4 out7 out6 out8 out9 out3 out2 out1

Doing analysis at TEMP = 27.000000 and TNOM = 27.000000


Initial Transient Solution
--------------------------

Node                                   Voltage
----                                   -------
vss                                          0
vdd                                        1.8
vin                                          0
out1                                9.3382e-08
net1                                       1.8
out2                                9.3382e-08
out3                                9.3382e-08
out                                 9.3382e-08
out6                                       1.8
out7                                       1.8
out8                                       1.8
out9                                       1.8
v3#branch                                    0
v2#branch                         -4.37616e-10
v1#branch                           4.3772e-10

 Reference value :  0.00000e+00 Reference value :  1.97741e-09 Reference value :  3.99541e-09 Reference value :  5.94941e-09
No. of Data Rows : 6041

t_rise              =  1.077352e-10 targ=  2.196290e-09 trig=  2.088555e-09
t_fall              =  7.810701e-11 targ=  3.225835e-09 trig=  3.147728e-09
Wn: 0.84
Wp: 1.42


********************************** Cycle 44 **********************************

Reset re-loads circuit **.subckt tb_fo4 out7 out6 out8 out9 out3 out2 out1

Circuit: **.subckt tb_fo4 out7 out6 out8 out9 out3 out2 out1

Reset re-loads circuit **.subckt tb_fo4 out7 out6 out8 out9 out3 out2 out1

Circuit: **.subckt tb_fo4 out7 out6 out8 out9 out3 out2 out1

Doing analysis at TEMP = 27.000000 and TNOM = 27.000000


Initial Transient Solution
--------------------------

Node                                   Voltage
----                                   -------
vss                                          0
vdd                                        1.8
vin                                          0
out1                               8.87588e-08
net1                                       1.8
out2                               8.87588e-08
out3                               8.87588e-08
out                                8.87588e-08
out6                                       1.8
out7                                       1.8
out8                                       1.8
out9                                       1.8
v3#branch                                    0
v2#branch                         -4.24135e-10
v1#branch                          4.24211e-10

 Reference value :  0.00000e+00 Reference value :  1.91641e-09 Reference value :  3.93341e-09 Reference value :  5.91841e-09
No. of Data Rows : 6041

t_rise              =  1.084809e-10 targ=  2.196633e-09 trig=  2.088152e-09
t_fall              =  7.761771e-11 targ=  3.225629e-09 trig=  3.148012e-09
Wn: 0.85
Wp: 1.41


********************************** Cycle 45 **********************************

Reset re-loads circuit **.subckt tb_fo4 out7 out6 out8 out9 out3 out2 out1

Circuit: **.subckt tb_fo4 out7 out6 out8 out9 out3 out2 out1

Reset re-loads circuit **.subckt tb_fo4 out7 out6 out8 out9 out3 out2 out1

Circuit: **.subckt tb_fo4 out7 out6 out8 out9 out3 out2 out1

Doing analysis at TEMP = 27.000000 and TNOM = 27.000000


Initial Transient Solution
--------------------------

Node                                   Voltage
----                                   -------
vss                                          0
vdd                                        1.8
vin                                          0
out1                               8.43494e-08
net1                                       1.8
out2                               8.43494e-08
out3                               8.43494e-08
out                                8.43494e-08
out6                                       1.8
out7                                       1.8
out8                                       1.8
out9                                       1.8
v3#branch                                    0
v2#branch                         -4.10893e-10
v1#branch                          4.10952e-10

 Reference value :  0.00000e+00 Reference value :  2.18545e-09 Reference value :  4.17445e-09
No. of Data Rows : 6041

t_rise              =  1.092498e-10 targ=  2.197016e-09 trig=  2.087766e-09
t_fall              =  7.714732e-11 targ=  3.225456e-09 trig=  3.148309e-09
Wn: 0.86
Wp: 1.4


********************************** Cycle 46 **********************************

Reset re-loads circuit **.subckt tb_fo4 out7 out6 out8 out9 out3 out2 out1

Circuit: **.subckt tb_fo4 out7 out6 out8 out9 out3 out2 out1

Reset re-loads circuit **.subckt tb_fo4 out7 out6 out8 out9 out3 out2 out1

Circuit: **.subckt tb_fo4 out7 out6 out8 out9 out3 out2 out1

Doing analysis at TEMP = 27.000000 and TNOM = 27.000000


Initial Transient Solution
--------------------------

Node                                   Voltage
----                                   -------
vss                                          0
vdd                                        1.8
vin                                          0
out1                               8.01435e-08
net1                                       1.8
out2                               8.01435e-08
out3                               8.01435e-08
out                                8.01435e-08
out6                                       1.8
out7                                       1.8
out8                                       1.8
out9                                       1.8
v3#branch                                    0
v2#branch                         -3.97888e-10
v1#branch                          3.97942e-10

 Reference value :  0.00000e+00 Reference value :  2.15445e-09 Reference value :  4.05845e-09 Reference value :  5.78241e-09
No. of Data Rows : 6041

t_rise              =  1.100415e-10 targ=  2.197436e-09 trig=  2.087395e-09
t_fall              =  7.669519e-11 targ=  3.225310e-09 trig=  3.148615e-09
Wn: 0.87
Wp: 1.39


********************************** Cycle 47 **********************************

Reset re-loads circuit **.subckt tb_fo4 out7 out6 out8 out9 out3 out2 out1

Circuit: **.subckt tb_fo4 out7 out6 out8 out9 out3 out2 out1

Reset re-loads circuit **.subckt tb_fo4 out7 out6 out8 out9 out3 out2 out1

Circuit: **.subckt tb_fo4 out7 out6 out8 out9 out3 out2 out1

Doing analysis at TEMP = 27.000000 and TNOM = 27.000000


Initial Transient Solution
--------------------------

Node                                   Voltage
----                                   -------
vss                                          0
vdd                                        1.8
vin                                          0
out1                               7.61311e-08
net1                                       1.8
out2                               7.61311e-08
out3                               7.61311e-08
out                                7.61311e-08
out6                                       1.8
out7                                       1.8
out8                                       1.8
out9                                       1.8
v3#branch                                    0
v2#branch                         -3.85123e-10
v1#branch                          3.85183e-10

 Reference value :  0.00000e+00 Reference value :  1.80141e-09 Reference value :  3.57041e-09 Reference value :  5.37141e-09
No. of Data Rows : 6041

t_rise              =  1.108725e-10 targ=  2.197906e-09 trig=  2.087033e-09
t_fall              =  7.626819e-11 targ=  3.225202e-09 trig=  3.148934e-09
Wn: 0.88
Wp: 1.38


********************************** Cycle 48 **********************************

Reset re-loads circuit **.subckt tb_fo4 out7 out6 out8 out9 out3 out2 out1

Circuit: **.subckt tb_fo4 out7 out6 out8 out9 out3 out2 out1

Reset re-loads circuit **.subckt tb_fo4 out7 out6 out8 out9 out3 out2 out1

Circuit: **.subckt tb_fo4 out7 out6 out8 out9 out3 out2 out1

Doing analysis at TEMP = 27.000000 and TNOM = 27.000000


Initial Transient Solution
--------------------------

Node                                   Voltage
----                                   -------
vss                                          0
vdd                                        1.8
vin                                          0
out1                               7.23031e-08
net1                                       1.8
out2                               7.23031e-08
out3                               7.23031e-08
out                                7.23031e-08
out6                                       1.8
out7                                       1.8
out8                                       1.8
out9                                       1.8
v3#branch                                    0
v2#branch                         -3.72593e-10
v1#branch                          3.72673e-10

 Reference value :  0.00000e+00 Reference value :  1.80041e-09 Reference value :  3.59641e-09 Reference value :  5.25641e-09
No. of Data Rows : 6041

t_rise              =  1.117204e-10 targ=  2.198408e-09 trig=  2.086687e-09
t_fall              =  7.586303e-11 targ=  3.225131e-09 trig=  3.149268e-09
Wn: 0.89
Wp: 1.37


********************************** Cycle 49 **********************************

Reset re-loads circuit **.subckt tb_fo4 out7 out6 out8 out9 out3 out2 out1

Circuit: **.subckt tb_fo4 out7 out6 out8 out9 out3 out2 out1

Reset re-loads circuit **.subckt tb_fo4 out7 out6 out8 out9 out3 out2 out1

Circuit: **.subckt tb_fo4 out7 out6 out8 out9 out3 out2 out1

Doing analysis at TEMP = 27.000000 and TNOM = 27.000000


Initial Transient Solution
--------------------------

Node                                   Voltage
----                                   -------
vss                                          0
vdd                                        1.8
vin                                          0
out1                               6.86509e-08
net1                                       1.8
out2                               6.86509e-08
out3                               6.86509e-08
out                                6.86509e-08
out6                                       1.8
out7                                       1.8
out8                                       1.8
out9                                       1.8
v3#branch                                    0
v2#branch                         -3.60309e-10
v1#branch                          3.60413e-10

 Reference value :  0.00000e+00 Reference value :  1.86541e-09 Reference value :  3.76541e-09 Reference value :  5.58141e-09
No. of Data Rows : 6041

t_rise              =  1.126012e-10 targ=  2.198955e-09 trig=  2.086354e-09
t_fall              =  7.546806e-11 targ=  3.225081e-09 trig=  3.149613e-09
Wn: 0.9
Wp: 1.36


********************************** Cycle 50 **********************************

Reset re-loads circuit **.subckt tb_fo4 out7 out6 out8 out9 out3 out2 out1

Circuit: **.subckt tb_fo4 out7 out6 out8 out9 out3 out2 out1

Reset re-loads circuit **.subckt tb_fo4 out7 out6 out8 out9 out3 out2 out1

Circuit: **.subckt tb_fo4 out7 out6 out8 out9 out3 out2 out1

Doing analysis at TEMP = 27.000000 and TNOM = 27.000000


Initial Transient Solution
--------------------------

Node                                   Voltage
----                                   -------
vss                                          0
vdd                                        1.8
vin                                          0
out1                               6.51661e-08
net1                                       1.8
out2                               6.51661e-08
out3                               6.51661e-08
out                                6.51661e-08
out6                                       1.8
out7                                       1.8
out8                                       1.8
out9                                       1.8
v3#branch                                    0
v2#branch                         -3.48324e-10
v1#branch                          3.48404e-10

[...]

Doing analysis at TEMP = 27.000000 and TNOM = 27.000000


Initial Transient Solution
--------------------------

Node                                   Voltage
----                                   -------
vss                                          0
vdd                                        1.8
vin                                          0
out1                               2.40216e-08
net1                                       1.8
out2                               2.40216e-08
out3                               2.40216e-08
out                                2.40216e-08
out6                                       1.8
out7                                       1.8
out8                                       1.8
out9                                       1.8
v3#branch                                    0
v2#branch                         -2.69329e-10
v1#branch                          2.69308e-10

 Reference value :  0.00000e+00 Reference value :  1.34141e-09 Reference value :  2.69745e-09 Reference value :  4.04325e-09 Reference value :  5.37541e-09
No. of Data Rows : 6041

t_rise              =  3.008612e-10 targ=  2.385523e-09 trig=  2.084662e-09
t_fall              =  9.167063e-11 targ=  3.305572e-09 trig=  3.213902e-09
Wn: 1.72
Wp: 0.54


********************************** Cycle 132 **********************************

Reset re-loads circuit **.subckt tb_fo4 out7 out6 out8 out9 out3 out2 out1

Circuit: **.subckt tb_fo4 out7 out6 out8 out9 out3 out2 out1

Reset re-loads circuit **.subckt tb_fo4 out7 out6 out8 out9 out3 out2 out1

Circuit: **.subckt tb_fo4 out7 out6 out8 out9 out3 out2 out1

Doing analysis at TEMP = 27.000000 and TNOM = 27.000000


Initial Transient Solution
--------------------------

Node                                   Voltage
----                                   -------
vss                                          0
vdd                                        1.8
vin                                          0
out1                                2.2022e-08
net1                                       1.8
out2                                2.2022e-08
out3                                2.2022e-08
out                                 2.2022e-08
out6                                       1.8
out7                                       1.8
out8                                       1.8
out9                                       1.8
v3#branch                                    0
v2#branch                          -2.4924e-10
v1#branch                          2.49225e-10

 Reference value :  0.00000e+00 Reference value :  1.38441e-09 Reference value :  2.73345e-09 Reference value :  4.06845e-09 Reference value :  5.41641e-09
No. of Data Rows : 6041

t_rise              =  3.061647e-10 targ=  2.391200e-09 trig=  2.085036e-09
t_fall              =  9.251337e-11 targ=  3.308289e-09 trig=  3.215775e-09
Wn: 1.73
Wp: 0.53


********************************** Cycle 133 **********************************

Reset re-loads circuit **.subckt tb_fo4 out7 out6 out8 out9 out3 out2 out1

Circuit: **.subckt tb_fo4 out7 out6 out8 out9 out3 out2 out1

Reset re-loads circuit **.subckt tb_fo4 out7 out6 out8 out9 out3 out2 out1

Circuit: **.subckt tb_fo4 out7 out6 out8 out9 out3 out2 out1

Doing analysis at TEMP = 27.000000 and TNOM = 27.000000


Initial Transient Solution
--------------------------

Node                                   Voltage
----                                   -------
vss                                          0
vdd                                        1.8
vin                                          0
out1                               2.00893e-08
net1                                       1.8
out2                               2.00893e-08
out3                               2.00893e-08
out                                2.00893e-08
out6                                       1.8
out7                                       1.8
out8                                       1.8
out9                                       1.8
v3#branch                                    0
v2#branch                         -2.29637e-10
v1#branch                           2.2961e-10

 Reference value :  0.00000e+00 Reference value :  1.38741e-09 Reference value :  2.74645e-09 Reference value :  4.06145e-09 Reference value :  5.40141e-09
No. of Data Rows : 6041

t_rise              =  3.117022e-10 targ=  2.397137e-09 trig=  2.085434e-09
t_fall              =  9.340367e-11 targ=  3.311143e-09 trig=  3.217740e-09
Wn: 1.74
Wp: 0.52


********************************** Cycle 134 **********************************

Reset re-loads circuit **.subckt tb_fo4 out7 out6 out8 out9 out3 out2 out1

Circuit: **.subckt tb_fo4 out7 out6 out8 out9 out3 out2 out1

Reset re-loads circuit **.subckt tb_fo4 out7 out6 out8 out9 out3 out2 out1

Circuit: **.subckt tb_fo4 out7 out6 out8 out9 out3 out2 out1

Doing analysis at TEMP = 27.000000 and TNOM = 27.000000


Initial Transient Solution
--------------------------

Node                                   Voltage
----                                   -------
vss                                          0
vdd                                        1.8
vin                                          0
out1                               1.82292e-08
net1                                       1.8
out2                               1.82292e-08
out3                               1.82292e-08
out                                1.82292e-08
out6                                       1.8
out7                                       1.8
out8                                       1.8
out9                                       1.8
v3#branch                                    0
v2#branch                         -2.10564e-10
v1#branch                          2.10539e-10

 Reference value :  0.00000e+00 Reference value :  1.39841e-09 Reference value :  2.74845e-09 Reference value :  4.07245e-09 Reference value :  5.39841e-09
No. of Data Rows : 6041

t_rise              =  3.174906e-10 targ=  2.403352e-09 trig=  2.085861e-09
t_fall              =  9.433494e-11 targ=  3.314137e-09 trig=  3.219802e-09
Wn: 1.75
Wp: 0.51


********************************** Cycle 135 **********************************

Reset re-loads circuit **.subckt tb_fo4 out7 out6 out8 out9 out3 out2 out1

Circuit: **.subckt tb_fo4 out7 out6 out8 out9 out3 out2 out1

Reset re-loads circuit **.subckt tb_fo4 out7 out6 out8 out9 out3 out2 out1

Circuit: **.subckt tb_fo4 out7 out6 out8 out9 out3 out2 out1

Doing analysis at TEMP = 27.000000 and TNOM = 27.000000


Initial Transient Solution
--------------------------

Node                                   Voltage
----                                   -------
vss                                          0
vdd                                        1.8
vin                                          0
out1                               1.64473e-08
net1                                       1.8
out2                               1.64473e-08
out3                               1.64473e-08
out                                1.64473e-08
out6                                       1.8
out7                                       1.8
out8                                       1.8
out9                                       1.8
v3#branch                                    0
v2#branch                         -1.92081e-10
v1#branch                           1.9209e-10

 Reference value :  0.00000e+00 Reference value :  1.24141e-09 Reference value :  2.61745e-09 Reference value :  3.88941e-09 Reference value :  5.20741e-09
No. of Data Rows : 6041

t_rise              =  3.235524e-10 targ=  2.409870e-09 trig=  2.086317e-09
t_fall              =  9.530989e-11 targ=  3.317280e-09 trig=  3.221971e-09
Wn: 1.76
Wp: 0.5


********************************** Cycle 136 **********************************

Reset re-loads circuit **.subckt tb_fo4 out7 out6 out8 out9 out3 out2 out1

Circuit: **.subckt tb_fo4 out7 out6 out8 out9 out3 out2 out1

Reset re-loads circuit **.subckt tb_fo4 out7 out6 out8 out9 out3 out2 out1

Circuit: **.subckt tb_fo4 out7 out6 out8 out9 out3 out2 out1

Doing analysis at TEMP = 27.000000 and TNOM = 27.000000


Initial Transient Solution
--------------------------

Node                                   Voltage
----                                   -------
vss                                          0
vdd                                        1.8
vin                                          0
out1                               1.47495e-08
net1                                       1.8
out2                               1.47495e-08
out3                               1.47495e-08
out                                1.47495e-08
out6                                       1.8
out7                                       1.8
out8                                       1.8
out9                                       1.8
v3#branch                                    0
v2#branch                         -1.74376e-10
v1#branch                          1.74343e-10

 Reference value :  0.00000e+00 Reference value :  1.40941e-09 Reference value :  2.74245e-09 Reference value :  4.07245e-09 Reference value :  5.42641e-09
No. of Data Rows : 6041

t_rise              =  3.299072e-10 targ=  2.416714e-09 trig=  2.086806e-09
t_fall              =  9.633856e-11 targ=  3.320594e-09 trig=  3.224255e-09
Wn: 1.77
Wp: 0.49


********************************** Cycle 137 **********************************

Reset re-loads circuit **.subckt tb_fo4 out7 out6 out8 out9 out3 out2 out1

Circuit: **.subckt tb_fo4 out7 out6 out8 out9 out3 out2 out1

Reset re-loads circuit **.subckt tb_fo4 out7 out6 out8 out9 out3 out2 out1

Circuit: **.subckt tb_fo4 out7 out6 out8 out9 out3 out2 out1

Doing analysis at TEMP = 27.000000 and TNOM = 27.000000


Initial Transient Solution
--------------------------

Node                                   Voltage
----                                   -------
vss                                          0
vdd                                        1.8
vin                                          0
out1                               1.31415e-08
net1                                       1.8
out2                               1.31415e-08
out3                               1.31415e-08
out                                1.31415e-08
out6                                       1.8
out7                                       1.8
out8                                       1.8
out9                                       1.8
v3#branch                                    0
v2#branch                         -1.57407e-10
v1#branch                          1.57379e-10

 Reference value :  0.00000e+00 Reference value :  1.41741e-09 Reference value :  2.77345e-09 Reference value :  4.10845e-09 Reference value :  5.44441e-09
No. of Data Rows : 6041

t_rise              =  3.365816e-10 targ=  2.423912e-09 trig=  2.087331e-09
t_fall              =  9.742842e-11 targ=  3.324092e-09 trig=  3.226664e-09
Wn: 1.78
Wp: 0.48


********************************** Cycle 138 **********************************

Reset re-loads circuit **.subckt tb_fo4 out7 out6 out8 out9 out3 out2 out1

Circuit: **.subckt tb_fo4 out7 out6 out8 out9 out3 out2 out1

Reset re-loads circuit **.subckt tb_fo4 out7 out6 out8 out9 out3 out2 out1

Circuit: **.subckt tb_fo4 out7 out6 out8 out9 out3 out2 out1

Doing analysis at TEMP = 27.000000 and TNOM = 27.000000


Initial Transient Solution
--------------------------

Node                                   Voltage
----                                   -------
vss                                          0
vdd                                        1.8
vin                                          0
out1                               1.16289e-08
net1                                       1.8
out2                               1.16289e-08
out3                               1.16289e-08
out                                1.16289e-08
out6                                       1.8
out7                                       1.8
out8                                       1.8
out9                                       1.8
v3#branch                                    0
v2#branch                          -1.4129e-10
v1#branch                          1.41275e-10

 Reference value :  0.00000e+00 Reference value :  1.37841e-09 Reference value :  2.71845e-09 Reference value :  4.03550e-09 Reference value :  5.34241e-09
No. of Data Rows : 6041

t_rise              =  3.436070e-10 targ=  2.431500e-09 trig=  2.087893e-09
t_fall              =  9.857472e-11 targ=  3.327784e-09 trig=  3.229209e-09
Wn: 1.79
Wp: 0.47


********************************** Cycle 139 **********************************

Reset re-loads circuit **.subckt tb_fo4 out7 out6 out8 out9 out3 out2 out1

Circuit: **.subckt tb_fo4 out7 out6 out8 out9 out3 out2 out1

Reset re-loads circuit **.subckt tb_fo4 out7 out6 out8 out9 out3 out2 out1

Circuit: **.subckt tb_fo4 out7 out6 out8 out9 out3 out2 out1

Doing analysis at TEMP = 27.000000 and TNOM = 27.000000


Initial Transient Solution
--------------------------

Node                                   Voltage
----                                   -------
vss                                          0
vdd                                        1.8
vin                                          0
out1                               1.02165e-08
net1                                       1.8
out2                               1.02165e-08
out3                               1.02165e-08
out                                1.02165e-08
out6                                       1.8
out7                                       1.8
out8                                       1.8
out9                                       1.8
v3#branch                                    0
v2#branch                         -1.26131e-10
v1#branch                          1.26108e-10

 Reference value :  0.00000e+00 Reference value :  1.39541e-09 Reference value :  2.76245e-09 Reference value :  4.11345e-09 Reference value :  5.46141e-09
No. of Data Rows : 6041

t_rise              =  3.510017e-10 targ=  2.439500e-09 trig=  2.088499e-09
t_fall              =  9.978702e-11 targ=  3.331690e-09 trig=  3.231903e-09
Wn: 1.8
Wp: 0.46


********************************** Cycle 140 **********************************

Reset re-loads circuit **.subckt tb_fo4 out7 out6 out8 out9 out3 out2 out1

Circuit: **.subckt tb_fo4 out7 out6 out8 out9 out3 out2 out1

Reset re-loads circuit **.subckt tb_fo4 out7 out6 out8 out9 out3 out2 out1

Circuit: **.subckt tb_fo4 out7 out6 out8 out9 out3 out2 out1

Doing analysis at TEMP = 27.000000 and TNOM = 27.000000


Initial Transient Solution
--------------------------

Node                                   Voltage
----                                   -------
vss                                          0
vdd                                        1.8
vin                                          0
out1                               8.90875e-09
net1                                       1.8
out2                               8.90875e-09
out3                               8.90875e-09
out                                8.90875e-09
out6                                       1.8
out7                                       1.8
out8                                       1.8
out9                                       1.8
v3#branch                                    0
v2#branch                          -1.1198e-10
v1#branch                          1.11946e-10

 Reference value :  0.00000e+00 Reference value :  1.15041e-09 Reference value :  2.31445e-09 Reference value :  3.54541e-09 Reference value :  4.63945e-09 Reference value :  5.87541e-09
No. of Data Rows : 6041

t_rise              =  3.588171e-10 targ=  2.447968e-09 trig=  2.089151e-09
t_fall              =  1.010728e-10 targ=  3.335836e-09 trig=  3.234763e-09
Wn: 1.81
Wp: 0.45


********************************** Cycle 141 **********************************

Reset re-loads circuit **.subckt tb_fo4 out7 out6 out8 out9 out3 out2 out1

Circuit: **.subckt tb_fo4 out7 out6 out8 out9 out3 out2 out1

Reset re-loads circuit **.subckt tb_fo4 out7 out6 out8 out9 out3 out2 out1

Circuit: **.subckt tb_fo4 out7 out6 out8 out9 out3 out2 out1

Doing analysis at TEMP = 27.000000 and TNOM = 27.000000


Initial Transient Solution
--------------------------

Node                                   Voltage
----                                   -------
vss                                          0
vdd                                        1.8
vin                                          0
out1                               7.70919e-09
net1                                       1.8
out2                               7.70919e-09
out3                               7.70919e-09
out                                7.70919e-09
out6                                       1.8
out7                                       1.8
out8                                       1.8
out9                                       1.8
v3#branch                                    0
v2#branch                         -9.88756e-11
v1#branch                          9.88511e-11

 Reference value :  0.00000e+00 Reference value :  1.20341e-09 Reference value :  2.41645e-09 Reference value :  3.72241e-09 Reference value :  5.02045e-09
No. of Data Rows : 6041

t_rise              =  3.670878e-10 targ=  2.456942e-09 trig=  2.089854e-09
t_fall              =  1.024310e-10 targ=  3.340235e-09 trig=  3.237804e-09
Wn: 1.82
Wp: 0.44


********************************** Cycle 142 **********************************

Reset re-loads circuit **.subckt tb_fo4 out7 out6 out8 out9 out3 out2 out1

Circuit: **.subckt tb_fo4 out7 out6 out8 out9 out3 out2 out1

Reset re-loads circuit **.subckt tb_fo4 out7 out6 out8 out9 out3 out2 out1

Circuit: **.subckt tb_fo4 out7 out6 out8 out9 out3 out2 out1

Doing analysis at TEMP = 27.000000 and TNOM = 27.000000


Initial Transient Solution
--------------------------

Node                                   Voltage
----                                   -------
vss                                          0
vdd                                        1.8
vin                                          0
out1                               6.62027e-09
net1                                       1.8
out2                               6.62027e-09
out3                               6.62027e-09
out                                6.62027e-09
out6                                       1.8
out7                                       1.8
out8                                       1.8
out9                                       1.8
v3#branch                                    0
v2#branch                         -8.68821e-11
v1#branch                          8.68719e-11

 Reference value :  0.00000e+00 Reference value :  1.28541e-09 Reference value :  2.57845e-09 Reference value :  3.84241e-09 Reference value :  4.97445e-09
No. of Data Rows : 6041

t_rise              =  3.758614e-10 targ=  2.466477e-09 trig=  2.090616e-09
Note: No ".plot", ".print", or ".fourier" lines; no simulations run
t_fall              =  1.038861e-10 targ=  3.344933e-09 trig=  3.241047e-09
Wn: 1.83
Wp: 0.43


********************************** End of Simulation **********************************

binary raw file "data_lh_mm.raw"
Corriendo para el corner: tt
Corriendo para el corner: sf
Corriendo para el corner: ff
Corriendo para el corner: ss
Corriendo para el corner: fs
Corriendo para el corner: ll
Corriendo para el corner: hh
Corriendo para el corner: hl
Corriendo para el corner: lh
Corriendo para el corner: tt_mm
Corriendo para el corner: sf_mm
Corriendo para el corner: ff_mm
Corriendo para el corner: ss_mm
Corriendo para el corner: fs_mm
Corriendo para el corner: ll_mm
Corriendo para el corner: hh_mm
Corriendo para el corner: hl_mm
Corriendo para el corner: lh_mm
